  
       XFOIL         Version 6.99
  
 Calculated polar for: NACA 2614                                       
  
 1 1 Reynolds number fixed          Mach number fixed         
  
 xtrf =   1.000 (top)        1.000 (bottom)  
 Mach =   0.000     Re =     1.200 e 6     Ncrit =   9.000
  
   alpha    CL        CD       CDp       CM     Top_Xtr  Bot_Xtr
  ------ -------- --------- --------- -------- -------- --------
   8.000   1.1162   0.01208   0.00608  -0.0591   0.0866   1.0000
