  
       XFOIL         Version 6.99
  
 Calculated polar for: NACA 2614                                       
  
 1 1 Reynolds number fixed          Mach number fixed         
  
 xtrf =   0.650 (top)        1.000 (bottom)  
 Mach =   0.000     Re =     0.200 e 6     Ncrit =  12.000
  
   alpha    CL        CD       CDp       CM     Top_Xtr  Bot_Xtr
  ------ -------- --------- --------- -------- -------- --------
   3.525   0.7000   0.01098   0.00518  -0.0740   0.6500   1.0000
